<?xml version="1.0" encoding="UTF-8"?>

<!-- generated on 2022-12-30 12:48:40 by Eclipse SUMO netedit Version v1_15_0+0379-cd608c2af74
<configuration xmlns:xsi="http://www.w3.org/2001/XMLSchema-instance" xsi:noNamespaceSchemaLocation="http://sumo.dlr.de/xsd/netconvertConfiguration.xsd">

    <input>
        <sumo-net-file value="/media/ahaydari/2TB_extra/Rl_files/TSCs/DaRL/LibSignal/data/raw_data/SF_downtown/SF_downtown.net.xml"/>
    </input>

    <output>
        <output-file value="/media/ahaydari/2TB_extra/Rl_files/TSCs/DaRL/LibSignal/data/raw_data/SF_downtown/SF_downtown.net.xml"/>
    </output>

    <processing>
        <geometry.min-radius.fix.railways value="false"/>
        <geometry.max-grade.fix value="false"/>
        <offset.disable-normalization value="true"/>
        <lefthand value="0"/>
    </processing>

    <junctions>
        <no-internal-links value="true"/>
        <no-turnarounds value="true"/>
        <junctions.corner-detail value="0"/>
        <junctions.limit-turn-speed value="-1.00"/>
        <rectangular-lane-cut value="0"/>
    </junctions>

    <pedestrian>
        <walkingareas value="0"/>
    </pedestrian>

</configuration>
-->

<net version="1.9" xmlns:xsi="http://www.w3.org/2001/XMLSchema-instance" xsi:noNamespaceSchemaLocation="http://sumo.dlr.de/xsd/net_file.xsd">

    <location netOffset="-549867.32,-4179840.29" convBoundary="1322.92,111.64,5855.25,4897.65" origBoundary="-122.440000,37.750000,-122.320000,37.810000" projParameter="+proj=utm +zone=10 +ellps=WGS84 +datum=WGS84 +units=m +no_defs"/>

    <edge id="-111049101" from="65349622" to="65317569" priority="4" type="highway.residential">
        <lane id="-111049101_0" index="0" disallow="tram rail_urban rail rail_electric rail_fast ship" speed="11.18" length="79.34" shape="1953.38,929.91 1904.10,978.09"/>
    </edge>
    <edge id="-111089307#0" from="65306847" to="65364094" priority="4" type="highway.residential" shape="1483.59,808.23 1380.25,863.97 1375.79,865.36 1361.92,865.79">
        <lane id="-111089307#0_0" index="0" disallow="tram rail_urban rail rail_electric rail_fast ship" speed="11.18" length="135.96" shape="1475.14,814.61 1380.87,865.45 1376.06,866.95 1361.97,867.39"/>
    </edge>
    <edge id="-111089307#1" from="65312164" to="65306847" priority="4" type="highway.residential">
        <lane id="-111089307#1_0" index="0" disallow="tram rail_urban rail rail_electric rail_fast ship" speed="11.18" length="73.85" shape="1543.05,778.00 1493.57,804.67"/>
    </edge>
    <edge id="-111089307#2" from="65317576" to="65312164" priority="4" type="highway.residential">
        <lane id="-111089307#2_0" index="0" disallow="tram rail_urban rail rail_electric rail_fast ship" speed="11.18" length="119.10" shape="1645.04,723.01 1555.73,771.17"/>
    </edge>
    <edge id="-111089307#3" from="65289131" to="65317576" priority="4" type="highway.residential">
        <lane id="-111089307#3_0" index="0" disallow="tram rail_urban rail rail_electric rail_fast ship" speed="11.18" length="66.49" shape="1706.43,689.92 1663.41,713.11"/>
    </edge>
    <edge id="-111089307#4" from="65317763" to="65289131" priority="4" type="highway.residential" shape="1823.24,625.12 1764.13,656.99 1711.96,685.12">
        <lane id="-111089307#4_0" index="0" disallow="tram rail_urban rail rail_electric rail_fast ship" speed="11.18" length="126.42" shape="1817.65,629.95 1764.89,658.40 1719.11,683.08"/>
    </edge>
    <edge id="-111547662#2" from="65293746" to="1723738829" priority="7" type="highway.secondary" shape="2199.60,1838.82 2151.99,1886.39 2112.58,1925.44 2074.03,1963.75 2054.83,1974.22">
        <lane id="-111547662#2_0" index="0" disallow="tram rail_urban rail rail_electric rail_fast ship" speed="11.18" length="199.00" shape="2195.63,1849.57 2155.38,1889.79 2115.96,1928.85 2076.93,1967.64 2068.11,1972.45"/>
        <lane id="-111547662#2_1" index="1" disallow="tram rail_urban rail rail_electric rail_fast ship" speed="11.18" length="199.00" shape="2193.37,1847.31 2153.12,1887.52 2113.71,1926.58 2075.00,1965.05 2066.58,1969.64"/>
    </edge>
    <edge id="-111550910#0" from="260193222" to="260193349" priority="4" type="highway.residential">
        <lane id="-111550910#0_0" index="0" disallow="tram rail_urban rail rail_electric rail_fast ship" speed="11.18" length="26.76" shape="3992.86,1938.45 4007.47,1937.32"/>
    </edge>
    <edge id="-111550910#1" from="65334467" to="260193222" priority="4" type="highway.residential" shape="3870.13,1878.56 3887.40,1897.07 3895.76,1905.96 3904.40,1914.13 3914.08,1921.75 3923.97,1928.28 3933.85,1933.46 3945.16,1937.80 3955.80,1940.70 3965.33,1942.22 3975.67,1942.84 3985.73,1940.61">
        <lane id="-111550910#1_0" index="0" disallow="tram rail_urban rail rail_electric rail_fast ship" speed="11.18" length="138.19" shape="3876.27,1882.79 3888.57,1895.98 3896.89,1904.83 3905.45,1912.92 3915.02,1920.45 3924.78,1926.90 3934.51,1932.00 3945.66,1936.28 3956.14,1939.13 3965.50,1940.63 3975.54,1941.23 3977.75,1940.74"/>
    </edge>
    <edge id="-111550910#2" from="65317058" to="65334467" priority="4" type="highway.residential" shape="3800.55,1807.98 3853.36,1861.63 3870.13,1878.56">
        <lane id="-111550910#2_0" index="0" disallow="tram rail_urban rail rail_electric rail_fast ship" speed="11.18" length="99.11" shape="3809.02,1814.30 3854.50,1860.51 3866.19,1872.31"/>
    </edge>
    <edge id="-111550911#0" from="65334469" to="65317058" priority="4" type="highway.residential" shape="3753.59,1761.87 3792.83,1801.43 3800.55,1807.98">
        <lane id="-111550911#0_0" index="0" disallow="tram rail_urban rail rail_electric rail_fast ship" speed="11.18" length="65.84" shape="3754.73,1760.74 3793.49,1799.82"/>
    </edge>
    <edge id="-111550911#1" from="603369654" to="65334469" priority="4" type="highway.residential">
        <lane id="-111550911#1_0" index="0" disallow="tram rail_urban rail rail_electric rail_fast ship" speed="11.18" length="72.24" shape="3703.96,1709.56 3754.73,1760.74"/>
    </edge>
    <edge id="-111550911#2" from="65334471" to="603369654" priority="4" type="highway.residential">
        <lane id="-111550911#2_0" index="0" disallow="tram rail_urban rail rail_electric rail_fast ship" speed="11.18" length="70.56" shape="3654.19,1659.54 3703.75,1709.35"/>
    </edge>
    <edge id="-111550911#3" from="65300049" to="65334471" priority="4" type="highway.residential" shape="3606.29,1612.29 3613.76,1620.88 3652.95,1660.56">
        <lane id="-111550911#3_0" index="0" disallow="tram rail_urban rail rail_electric rail_fast ship" speed="11.18" length="67.15" shape="3612.37,1616.84 3614.93,1619.79 3653.98,1659.33"/>
    </edge>
    <edge id="-111560680" from="371151373" to="65351772" priority="7" type="highway.secondary">
        <lane id="-111560680_0" index="0" disallow="tram rail_urban rail rail_electric rail_fast ship" speed="11.18" length="76.57" shape="2540.27,2172.99 2588.69,2222.40"/>
        <lane id="-111560680_1" index="1" disallow="tram rail_urban rail rail_electric rail_fast ship" speed="11.18" length="76.57" shape="2537.99,2175.22 2586.41,2224.64"/>
    </edge>
    <edge id="-111560681#2" from="65317551" to="65306817" priority="4" type="highway.residential">
        <lane id="-111560681#2_0" index="0" disallow="tram rail_urban rail rail_electric rail_fast ship" speed="11.18" length="191.30" shape="2371.57,1475.02 2247.13,1598.75"/>
    </edge>
    <edge id="-111560682" from="65308413" to="65329405" priority="7" type="highway.secondary" shape="3328.84,2974.83 3398.07,3043.61 3404.38,3053.10">
        <lane id="-111560682_0" index="0" disallow="tram rail_urban rail rail_electric rail_fast ship" speed="11.18" length="108.98" shape="3338.44,2977.60 3401.80,3040.55 3403.65,3043.34"/>
        <lane id="-111560682_1" index="1" disallow="tram rail_urban rail rail_electric rail_fast ship" speed="11.18" length="108.98" shape="3336.18,2979.87 3399.31,3042.59 3400.99,3045.11"/>
    </edge>
    <edge id="-120256349" from="65329405" to="65303488" priority="7" type="highway.secondary">
        <lane id="-120256349_0" index="0" disallow="tram rail_urban rail rail_electric rail_fast ship" speed="11.18" length="108.55" shape="3413.96,3055.95 3479.14,3121.68"/>
        <lane id="-120256349_1" index="1" disallow="tram rail_urban rail rail_electric rail_fast ship" speed="11.18" length="108.55" shape="3411.69,3058.20 3476.87,3123.93"/>
    </edge>
    <edge id="-121785555" from="65318224" to="65333647" priority="4" type="highway.residential">
        <lane id="-121785555_0" index="0" disallow="tram rail_urban rail rail_electric rail_fast ship" speed="11.18" length="113.24" shape="2988.08,1902.77 3059.14,1976.93"/>
    </edge>
    <edge id="-122498865" from="65321839" to="65306931" priority="4" type="highway.residential">
        <lane id="-122498865_0" index="0" disallow="tram rail_urban rail rail_electric rail_fast ship" speed="11.18" length="66.21" shape="2328.43,1982.92 2288.84,2022.24"/>
    </edge>
    <edge id="-133755923#0" from="65293797" to="65303721" priority="4" type="highway.residential" shape="3024.10,1028.11 2875.77,879.34 2869.69,872.76 2863.72,866.70 2833.76,835.98 2826.00,828.13">
        <lane id="-133755923#0_0" index="0" disallow="tram rail_urban rail rail_electric rail_fast ship" speed="11.18" length="281.50" shape="3017.75,1024.01 2874.62,880.45 2868.53,873.86 2862.58,867.82 2832.62,837.10 2832.16,836.64"/>
    </edge>
    <edge id="-133755923#1" from="65325061" to="65293797" priority="4" type="highway.residential" shape="3215.74,1220.32 3207.10,1212.23 3028.72,1033.02 3024.10,1028.11">
        <lane id="-133755923#1_0" index="0" disallow="tram rail_urban rail rail_electric rail_fast ship" speed="11.18" length="271.43" shape="3209.25,1216.43 3205.99,1213.38 3027.82,1034.38"/>
    </edge>
    <edge id="-133755930#0" from="65300043" to="260193156" priority="9" type="highway.primary">
        <lane id="-133755930#0_0" index="0" disallow="tram rail_urban rail rail_electric rail_fast ship" speed="11.18" length="70.79" shape="3751.39,1473.29 3709.89,1513.79"/>
        <lane id="-133755930#0_1" index="1" disallow="tram rail_urban rail rail_electric rail_fast ship" speed="11.18" length="70.79" shape="3749.16,1471.00 3707.66,1511.50"/>
    </edge>
    <edge id="-133755930#1" from="2845162694" to="65300043" priority="9" type="highway.primary">
        <lane id="-133755930#1_0" index="0" disallow="tram rail_urban rail rail_electric rail_fast ship" speed="11.18" length="16.00" shape="3766.85,1458.21 3759.39,1465.49"/>
        <lane id="-133755930#1_1" index="1" disallow="tram rail_urban rail rail_electric rail_fast ship" speed="11.18" length="16.00" shape="3764.62,1455.92 3757.15,1463.20"/>
    </edge>
    <edge id="-141688972#0" from="239601901" to="65293779" priority="6" type="highway.tertiary">
        <lane id="-141688972#0_0" index="0" disallow="tram rail_urban rail rail_electric rail_fast ship" speed="11.18" length="14.91" shape="2893.66,1171.03 2890.49,1167.83"/>
    </edge>
    <edge id="-141688972#1" from="65315481" to="239601901" priority="6" type="highway.tertiary" shape="3079.08,1355.80 2954.12,1229.74 2894.80,1169.90">
        <lane id="-141688972#1_0" index="0" disallow="tram rail_urban rail rail_electric rail_fast ship" speed="11.18" length="261.76" shape="3072.87,1351.81 2952.98,1230.87 2893.66,1171.03"/>
    </edge>
    <edge id="-141688972#2" from="65315477" to="65315481" priority="6" type="highway.tertiary">
        <lane id="-141688972#2_0" index="0" disallow="tram rail_urban rail rail_electric rail_fast ship" speed="11.18" length="276.64" shape="3267.64,1548.28 3083.01,1362.04"/>
    </edge>
    <edge id="-143617587" from="65334473" to="65325061" priority="4" type="highway.residential" shape="3411.18,1416.35 3403.27,1408.43 3223.98,1228.59 3215.74,1220.32">
        <lane id="-143617587_0" index="0" disallow="tram rail_urban rail rail_electric rail_fast ship" speed="11.18" length="276.81" shape="3402.78,1410.21 3402.14,1409.56 3222.85,1229.72 3219.63,1226.49"/>
    </edge>
    <edge id="-143617589#1" from="65319456" to="65300049" priority="4" type="highway.residential" shape="3536.96,1542.67 3559.89,1565.69 3606.29,1612.29">
        <lane id="-143617589#1_0" index="0" disallow="tram rail_urban rail rail_electric rail_fast ship" speed="11.18" length="98.25" shape="3538.09,1541.54 3561.02,1564.56 3602.31,1606.02"/>
    </edge>
    <edge id="-143617589#2" from="65291006" to="65319456" priority="4" type="highway.residential">
        <lane id="-143617589#2_0" index="0" disallow="tram rail_urban rail rail_electric rail_fast ship" speed="11.18" length="41.39" shape="3509.00,1512.31 3538.09,1541.54"/>
    </edge>
    <edge id="-143617589#6" from="65334473" to="65291006" priority="4" type="highway.residential" shape="3411.18,1416.35 3420.50,1425.72 3428.45,1433.70 3474.21,1479.65 3502.57,1508.13 3507.76,1513.33">
        <lane id="-143617589#6_0" index="0" disallow="tram rail_urban rail rail_electric rail_fast ship" speed="11.18" length="136.87" shape="3419.73,1422.68 3421.63,1424.59 3429.58,1432.57 3475.34,1478.52 3503.70,1507.00 3508.79,1512.09"/>
    </edge>
    <edge id="-143617593" from="65281097" to="65281916" priority="6" type="highway.tertiary" shape="2942.26,1491.42 2895.34,1537.95 2852.98,1579.95 2805.38,1627.13">
        <lane id="-143617593_0" index="0" disallow="tram rail_urban rail rail_electric rail_fast ship" speed="11.18" length="192.75" shape="2936.00,1499.88 2896.47,1539.09 2854.11,1581.09 2815.03,1619.82"/>
    </edge>
    <edge id="-160313263#1" from="293820339" to="666585985" priority="9" type="highway.primary" shape="3694.43,1137.51 3676.79,1154.99 3660.39,1171.60 3624.13,1208.03 3620.33,1211.75 3609.65,1222.16 3606.35,1225.38">
        <lane id="-160313263#1_0" index="0" disallow="tram rail_urban rail rail_electric rail_fast ship" speed="11.18" length="124.42" shape="3697.81,1140.92 3680.19,1158.38 3663.80,1174.98 3627.53,1211.42 3623.68,1215.19 3613.00,1225.60 3609.70,1228.82"/>
        <lane id="-160313263#1_1" index="1" disallow="tram rail_urban rail rail_electric rail_fast ship" speed="11.18" length="124.42" shape="3695.56,1138.65 3677.92,1156.12 3661.53,1172.73 3625.26,1209.16 3621.45,1212.90 3610.77,1223.31 3607.47,1226.53"/>
    </edge>
    <edge id="-160325571#1" from="1723738865" to="65309522" priority="9" type="highway.primary" shape="3337.55,3271.66 3402.40,3336.84 3404.30,3338.39 3408.50,3340.58 3411.89,3341.34 3415.32,3341.24 3418.71,3340.09 3422.11,3338.03 3424.39,3336.17 3426.84,3334.18 3494.15,3266.91 3544.96,3216.14 3557.29,3208.18">
        <lane id="-160325571#1_0" index="0" disallow="tram rail_urban rail rail_electric rail_fast ship" speed="11.18" length="301.36" shape="3346.04,3273.38 3405.63,3333.28 3406.95,3334.36 3410.16,3336.03 3412.35,3336.52 3414.46,3336.46 3416.67,3335.71 3419.34,3334.10 3421.36,3332.45 3423.62,3330.61 3490.76,3263.51 3541.93,3212.38 3544.73,3210.57"/>
        <lane id="-160325571#1_1" index="1" disallow="tram rail_urban rail rail_electric rail_fast ship" speed="11.18" length="301.36" shape="3343.77,3275.64 3403.48,3335.65 3405.18,3337.05 3409.05,3339.06 3412.04,3339.73 3415.03,3339.65 3418.03,3338.63 3421.19,3336.72 3423.38,3334.93 3425.77,3332.99 3493.02,3265.78 3543.95,3214.89 3546.47,3213.26"/>
    </edge>
    <edge id="-162931811#0" from="65324087" to="65315481" priority="4" type="highway.residential">
        <lane id="-162931811#0_0" index="0" disallow="tram rail_urban rail rail_electric rail_fast ship" speed="11.18" length="96.38" shape="3143.53,1294.15 3085.32,1351.87"/>
    </edge>
    <edge id="-162931811#1" from="65325061" to="65324087" priority="4" type="highway.residential" shape="3215.74,1220.32 3206.28,1229.28 3147.52,1287.94">
        <lane id="-162931811#1_0" index="0" disallow="tram rail_urban rail rail_electric rail_fast ship" speed="11.18" length="96.06" shape="3211.47,1226.57 3207.40,1230.43 3153.75,1283.98"/>
    </edge>
    <edge id="-174822357#0" from="65315463" to="65324701" priority="4" type="highway.residential">
        <lane id="-174822357#0_0" index="0" disallow="tram rail_urban rail rail_electric rail_fast ship" speed="11.18" length="80.08" shape="3855.06,2148.83 3808.42,2195.07"/>
    </edge>
    <edge id="-174822357#1" from="65325725" to="65315463" priority="4" type="highway.residential">
        <lane id="-174822357#1_0" index="0" disallow="tram rail_urban rail rail_electric rail_fast ship" speed="11.18" length="115.42" shape="3942.15,2062.50 3865.29,2138.69"/>
    </edge>
    <edge id="-175129396#1" from="65290184" to="65290185" priority="6" type="highway.tertiary" shape="3953.65,2508.94 3925.85,2481.98 3875.10,2432.72">
        <lane id="-175129396#1_0" index="0" disallow="tram rail_urban rail rail_electric rail_fast ship" speed="11.18" length="109.45" shape="3945.05,2507.28 3922.51,2485.42 3879.13,2443.32"/>
        <lane id="-175129396#1_1" index="1" disallow="tram rail_urban rail rail_electric rail_fast ship" speed="11.18" length="109.45" shape="3947.27,2504.98 3924.74,2483.13 3881.36,2441.02"/>
    </edge>
    <edge id="-191296172#0" from="65317576" to="276545995" priority="9" type="highway.primary" shape="1653.43,716.67 1647.64,705.84 1640.62,692.34 1634.23,678.40 1629.08,665.68 1623.85,652.03 1619.21,638.78 1614.77,624.17 1611.12,609.45 1607.97,595.15 1605.02,580.67 1603.26,568.42">
        <lane id="-191296172#0_0" index="0" disallow="tram rail_urban rail rail_electric rail_fast ship" speed="11.18" length="157.44" shape="1645.79,712.56 1643.39,708.08 1636.31,694.45 1629.82,680.30 1624.61,667.44 1619.34,653.68 1614.65,640.27 1610.14,625.45 1606.45,610.54 1603.27,596.15 1600.29,581.49 1598.51,569.10"/>
        <lane id="-191296172#0_1" index="1" disallow="tram rail_urban rail rail_electric rail_fast ship" speed="11.18" length="157.44" shape="1648.61,711.06 1646.22,706.59 1639.18,693.04 1632.76,679.03 1627.59,666.27 1622.35,652.58 1617.69,639.28 1613.23,624.60 1609.56,609.81 1606.40,595.48 1603.44,580.94 1601.68,568.65"/>
    </edge>
    <edge id="-191296172#2" from="65317572" to="65317576" priority="9" type="highway.primary" shape="1737.05,824.60 1726.64,814.05 1715.33,802.10 1705.08,790.72 1692.77,775.87 1680.64,759.72 1671.03,745.78 1661.62,731.02 1653.43,716.67">
        <lane id="-191296172#2_0" index="0" disallow="tram rail_urban rail rail_electric rail_fast ship" speed="11.18" length="137.04" shape="1728.58,822.85 1723.19,817.39 1711.80,805.36 1701.45,793.86 1689.00,778.84 1676.74,762.52 1667.03,748.43 1657.51,733.50 1652.91,725.44"/>
        <lane id="-191296172#2_1" index="1" disallow="tram rail_urban rail rail_electric rail_fast ship" speed="11.18" length="137.04" shape="1730.86,820.60 1725.49,815.16 1714.15,803.19 1703.87,791.77 1691.51,776.86 1679.34,760.65 1669.70,746.66 1660.25,731.85 1655.69,723.85"/>
    </edge>
    <edge id="-202317711" from="1723738831" to="1723739266" priority="9" type="highway.primary">
        <lane id="-202317711_0" index="0" disallow="tram rail_urban rail rail_electric rail_fast ship" speed="11.18" length="111.07" shape="3117.75,3039.22 3183.49,3105.53"/>
        <lane id="-202317711_1" index="1" disallow="tram rail_urban rail rail_electric rail_fast ship" speed="11.18" length="111.07" shape="3115.47,3041.47 3181.21,3107.78"/>
    </edge>
    <edge id="-202485361#1" from="65317515" to="65308416" priority="9" type="highway.primary" shape="3678.56,2781.21 3675.22,2777.95 3663.58,2766.24 3604.57,2706.83 3601.44,2703.70">
        <lane id="-202485361#1_0" index="0" disallow="tram rail_urban rail rail_electric rail_fast ship" speed="11.18" length="109.34" shape="3670.00,2779.51 3660.17,2769.62 3605.41,2714.48"/>
        <lane id="-202485361#1_1" index="1" disallow="tram rail_urban rail rail_electric rail_fast ship" speed="11.18" length="109.34" shape="3672.23,2777.21 3662.44,2767.37 3607.67,2712.22"/>
    </edge>
    <edge id="-204884121" from="1723738829" to="1723739263" priority="9" type="highway.primary">
        <lane id="-204884121_0" index="0" disallow="tram rail_urban rail rail_electric rail_fast ship" speed="11.18" length="156.27" shape="2067.04,1979.73 2168.07,2081.81"/>
        <lane id="-204884121_1" index="1" disallow="tram rail_urban rail rail_electric rail_fast ship" speed="11.18" length="156.27" shape="2064.77,1981.98 2165.79,2084.06"/>
    </edge>
    <edge id="-204884378#1" from="1723739359" to="1723739123" priority="9" type="highway.primary" shape="2998.38,2925.63 3020.75,2948.20 3034.16,2961.73">
        <lane id="-204884378#1_0" index="0" disallow="tram rail_urban rail rail_electric rail_fast ship" speed="11.18" length="50.83" shape="3001.79,2922.25 3024.16,2944.82 3032.49,2953.23"/>
        <lane id="-204884378#1_1" index="1" disallow="tram rail_urban rail rail_electric rail_fast ship" speed="11.18" length="50.83" shape="2999.52,2924.50 3021.89,2947.07 3030.22,2955.48"/>
    </edge>
    <edge id="-204884387#2" from="1723739121" to="1723738893" priority="9" type="highway.primary" shape="2699.59,2624.41 2706.70,2631.57 2774.65,2699.98 2785.26,2710.66">
        <lane id="-204884387#2_0" index="0" disallow="tram rail_urban rail rail_electric rail_fast ship" speed="11.18" length="121.57" shape="2703.10,2621.13 2710.11,2628.19 2778.06,2696.60 2779.01,2697.56"/>
        <lane id="-204884387#2_1" index="1" disallow="tram rail_urban rail rail_electric rail_fast ship" speed="11.18" length="121.57" shape="2700.83,2623.39 2707.84,2630.44 2775.79,2698.85 2776.74,2699.81"/>
    </edge>
    <edge id="-204884397" from="1723738833" to="1723738990" priority="9" type="highway.primary">
        <lane id="-204884397_0" index="0" disallow="tram rail_urban rail rail_electric rail_fast ship" speed="11.18" length="138.80" shape="2561.46,2478.20 2654.73,2572.48"/>
        <lane id="-204884397_1" index="1" disallow="tram rail_urban rail rail_electric rail_fast ship" speed="11.18" length="138.80" shape="2559.18,2480.45 2652.45,2574.74"/>
    </edge>
    <edge id="-204963504" from="1723738895" to="1723739150" priority="9" type="highway.primary" shape="1426.73,1341.32 1439.63,1354.23 1513.66,1428.30 1533.30,1448.09">
        <lane id="-204963504_0" index="0" disallow="tram rail_urban rail rail_electric rail_fast ship" speed="11.18" length="150.85" shape="1435.47,1343.28 1443.03,1350.84 1517.06,1424.91 1531.66,1439.62"/>
        <lane id="-204963504_1" index="1" disallow="tram rail_urban rail rail_electric rail_fast ship" speed="11.18" length="150.85" shape="1433.21,1345.54 1440.76,1353.10 1514.79,1427.17 1529.39,1441.88"/>
    </edge>
    <edge id="-204963631" from="1723738832" to="1723738895" priority="9" type="highway.primary" shape="1322.92,1235.97 1409.49,1323.54 1426.73,1341.32">
        <lane id="-204963631_0" index="0" disallow="tram rail_urban rail rail_electric rail_fast ship" speed="11.18" length="147.00" shape="1331.41,1237.73 1412.92,1320.18 1425.83,1333.50"/>
        <lane id="-204963631_1" index="1" disallow="tram rail_urban rail rail_electric rail_fast ship" speed="11.18" length="147.00" shape="1329.14,1239.98 1410.63,1322.42 1423.53,1335.73"/>
    </edge>
    <edge id="-207761516" from="1723739077" to="1723738829" priority="9" type="highway.primary">
        <lane id="-207761516_0" index="0" disallow="tram rail_urban rail rail_electric rail_fast ship" speed="11.18" length="155.19" shape="1949.16,1860.67 2052.04,1964.58"/>
        <lane id="-207761516_1" index="1" disallow="tram rail_urban rail rail_electric rail_fast ship" speed="11.18" length="155.19" shape="1946.88,1862.92 2049.77,1966.83"/>
    </edge>
    <edge id="-214545530#2" from="65317544" to="65306810" priority="9" type="highway.primary" shape="2668.44,1762.90 2621.22,1809.72 2579.04,1851.54 2532.08,1898.10">
        <lane id="-214545530#2_0" index="0" disallow="tram rail_urban rail rail_electric rail_fast ship" speed="11.18" length="192.02" shape="2664.43,1773.63 2624.60,1813.13 2582.42,1854.95 2542.87,1894.16"/>
        <lane id="-214545530#2_1" index="1" disallow="tram rail_urban rail rail_electric rail_fast ship" speed="11.18" length="192.02" shape="2662.18,1771.36 2622.35,1810.86 2580.17,1852.68 2540.62,1891.89"/>
    </edge>
    <edge id="-214545530#3" from="65325041" to="65317544" priority="9" type="highway.primary" shape="2717.68,1714.08 2701.14,1730.44 2691.68,1739.90 2684.48,1746.97 2678.80,1752.65 2668.44,1762.90">
        <lane id="-214545530#3_0" index="0" disallow="tram rail_urban rail rail_electric rail_fast ship" speed="11.18" length="69.34" shape="2717.07,1721.43 2704.52,1733.85 2695.06,1743.31 2687.86,1750.38 2682.18,1756.06 2679.22,1758.99"/>
        <lane id="-214545530#3_1" index="1" disallow="tram rail_urban rail rail_electric rail_fast ship" speed="11.18" length="69.34" shape="2714.82,1719.16 2702.27,1731.58 2692.81,1741.04 2685.61,1748.11 2679.93,1753.79 2676.97,1756.72"/>
    </edge>
    <edge id="-214545530#6" from="65325050" to="65325041" priority="9" type="highway.primary" shape="2758.77,1673.35 2745.12,1686.78 2729.20,1702.66 2717.68,1714.08">
        <lane id="-214545530#6_0" index="0" disallow="tram rail_urban rail rail_electric rail_fast ship" speed="11.18" length="57.86" shape="2758.12,1680.72 2748.50,1690.19 2732.59,1706.06 2725.04,1713.55"/>
        <lane id="-214545530#6_1" index="1" disallow="tram rail_urban rail rail_electric rail_fast ship" speed="11.18" length="57.86" shape="2755.88,1678.44 2746.25,1687.92 2730.33,1703.79 2722.78,1711.27"/>
    </edge>
    <edge id="-214545530#7" from="65281916" to="65325050" priority="9" type="highway.primary">
        <lane id="-214545530#7_0" index="0" disallow="tram rail_urban rail rail_electric rail_fast ship" speed="11.18" length="65.64" shape="2800.24,1638.99 2766.13,1672.81"/>
        <lane id="-214545530#7_1" index="1" disallow="tram rail_urban rail rail_electric rail_fast ship" speed="11.18" length="65.64" shape="2797.98,1636.72 2763.88,1670.54"/>
    </edge>
    <edge id="-215524529" from="258877153" to="984720636" priority="4" type="highway.residential" shape="3016.92,726.85 3014.24,720.49 3013.22,714.71 3013.73,708.96 3015.94,704.39 3020.08,699.23 3057.81,661.67 3067.23,649.44 3122.14,596.38">
        <lane id="-215524529_0" index="0" disallow="tram rail_urban rail rail_electric rail_fast ship" speed="11.18" length="175.27" shape="3013.15,722.03 3012.70,720.95 3011.61,714.78 3012.16,708.53 3014.58,703.53 3018.89,698.16 3056.61,660.61 3066.03,648.37 3121.03,595.23"/>
    </edge>
    <edge id="-215819163" from="65324701" to="65325715" priority="5" type="highway.unclassified" shape="3802.18,2199.00 3868.03,2265.50 3870.30,2269.56 3870.04,2274.77 3868.45,2280.34 3866.09,2283.89 3864.54,2287.95 3864.90,2290.16 3865.34,2292.91 3868.61,2299.06 3872.55,2303.77 3874.86,2309.31 3874.63,2315.94 3872.23,2321.90 3823.37,2369.92">
        <lane id="-215819163_0" index="0" disallow="tram rail_urban rail rail_electric rail_fast ship" speed="11.18" length="223.55" shape="3808.38,2202.99 3869.32,2264.53 3871.92,2269.18 3871.63,2275.03 3869.92,2281.02 3867.52,2284.63 3866.19,2288.12 3866.48,2289.91 3866.88,2292.39 3869.94,2298.16 3873.93,2302.93 3876.47,2309.02 3876.22,2316.28 3873.59,2322.81 3829.61,2366.03"/>
    </edge>
    <edge id="-224200968" from="258756405" to="1723738865" priority="9" type="highway.primary" shape="3273.60,3204.58 3286.96,3220.15 3295.33,3229.24 3337.55,3271.66">
        <lane id="-224200968_0" index="0" disallow="tram rail_urban rail rail_electric rail_fast ship" speed="11.18" length="92.72" shape="3278.84,3203.32 3290.55,3216.96 3298.80,3225.92 3335.90,3263.20"/>
        <lane id="-224200968_1" index="1" disallow="tram rail_urban rail rail_electric rail_fast ship" speed="11.18" length="92.72" shape="3276.41,3205.40 3288.16,3219.09 3296.49,3228.13 3333.63,3265.46"/>
    </edge>
    <edge id="-224373753" from="1723739266" to="258756405" priority="9" type="highway.primary" shape="3188.04,3116.94 3263.82,3193.39 3273.60,3204.58">
        <lane id="-224373753_0" index="0" disallow="tram rail_urban rail rail_electric rail_fast ship" speed="11.18" length="122.50" shape="3196.05,3118.20 3263.01,3185.76"/>
        <lane id="-224373753_1" index="1" disallow="tram rail_urban rail rail_electric rail_fast ship" speed="11.18" length="122.50" shape="3193.77,3120.45 3260.60,3187.87"/>
    </edge>
    <edge id="-224384018" from="1723739244" to="1723739241" priority="9" type="highway.primary" shape="2838.58,2764.45 2927.69,2854.32 2952.45,2879.30">
        <lane id="-224384018_0" index="0" disallow="tram rail_urban rail rail_electric rail_fast ship" speed="11.18" length="161.73" shape="2849.30,2768.44 2931.10,2850.94 2955.86,2875.92"/>
        <lane id="-224384018_1" index="1" disallow="tram rail_urban rail rail_electric rail_fast ship" speed="11.18" length="161.73" shape="2847.03,2770.70 2928.83,2853.19 2953.59,2878.17"/>
    </edge>
    <edge id="-224384019#1" from="1723738893" to="1723739244" priority="9" type="highway.primary" shape="2785.26,2710.66 2797.85,2723.50 2838.58,2764.45">
        <lane id="-224384019#1_0" index="0" disallow="tram rail_urban rail rail_electric rail_fast ship" speed="11.18" length="75.74" shape="2790.19,2708.84 2801.27,2720.13 2834.65,2753.69"/>
        <lane id="-224384019#1_1" index="1" disallow="tram rail_urban rail rail_electric rail_fast ship" speed="11.18" length="75.74" shape="2787.91,2711.08 2798.99,2722.38 2832.38,2755.94"/>
    </edge>
    <edge id="-224384059#0" from="65317060" to="65317058" priority="7" type="highway.secondary">
        <lane id="-224384059#0_0" index="0" disallow="tram rail_urban rail rail_electric rail_fast ship" speed="11.18" length="107.76" shape="3875.05,1740.36 3809.00,1806.32"/>
        <lane id="-224384059#0_1" index="1" disallow="tram rail_urban rail rail_electric rail_fast ship" speed="11.18" length="107.76" shape="3872.79,1738.10 3806.74,1804.06"/>
    </edge>
    <edge id="-224384059#1" from="260193242" to="65317060" priority="7" type="highway.secondary">